77
Energy =
C     3.7955681   -2.0090464   -0.1108279 
C     4.2327151   -0.7091992   -0.1627335 
C     3.0524860    0.1344982   -0.1185901 
N     1.9200690   -0.6517029   -0.0614945 
C     2.3461600   -1.9641087   -0.0555249 
C    -2.0433098   -3.8249326    0.1713657 
C    -0.7428878   -4.2621021    0.1374713 
C     0.0972315   -3.0804624    0.0752210 
N    -0.6913518   -1.9483094    0.0602631 
C    -2.0023823   -2.3753779    0.1103211 
C     1.5127785   -3.1080189    0.0154937 
C    -3.8660993    2.0152644   -0.0503645 
C    -4.3023961    0.7146747   -0.0108784 
C    -3.1207907   -0.1238437    0.0702082 
N    -1.9887300    0.6650900    0.0697877 
C    -2.4164879    1.9753805    0.0064385 
C    -3.1480479   -1.5407387    0.1098819 
C     1.9787628    3.8350191   -0.0435898 
C     0.6786732    4.2733228   -0.0097595 
C    -0.1651955    3.0935304   -0.0566368 
N     0.6207364    1.9605178   -0.1075078 
C     1.9333407    2.3860919   -0.1100178 
C     3.0792013    1.5516207   -0.1376260 
C    -1.5825560    3.1216823   -0.0273424 
C    -4.4905724   -2.2044074    0.1447892 
C    -2.2488797    4.4624761   -0.0329349 
C     4.4189364    2.2204914   -0.1808795 
C     2.1795322   -4.4506001    0.0278099 
C     2.1853266   -5.2434403    1.1966456 
C     2.8094420   -6.5004225    1.2082236 
C     3.4380394   -6.9878726    0.0511593 
C     3.4388760   -6.2096050   -1.1175328 
C     2.8157776   -4.9521302   -1.1291077 
C    -4.9490552   -2.9706304   -0.9500457 
C    -6.2081739   -3.5892305   -0.9165544 
C    -7.0316507   -3.4551659    0.2128641 
C    -6.5879701   -2.6966264    1.3080253 
C    -5.3299135   -2.0758839    1.2738752 
C    -2.1415698    5.3197539   -1.1510993 
C    -2.7676010    6.5755239   -1.1563599 
C    -3.5103147    6.9997170   -0.0427331 
C    -3.6238799    6.1584730    1.0757953 
C    -3.0005824    4.9013735    1.0801993 
C     5.3068359    2.1381897    0.9149704 
C     6.5603488    2.7675801    0.8724324 
C     6.9505546    3.4893403   -0.2670802 
C     6.0776978    3.5789089   -1.3632892 
C     4.8231828    2.9516441   -1.3201580 
Zn   -0.0346321    0.0061363   -0.0097012 
H     4.4017706   -2.9209311   -0.1099038 
H     5.2657119   -0.3517940   -0.2262579 
H    -2.9527018   -4.4315563    0.2334339 
H    -0.3823023   -5.2958977    0.1527285 
H    -4.4725750    2.9231292   -0.1332800 
H    -5.3348204    0.3524130   -0.0536264 
H     2.8911002    4.4393599   -0.0057128 
H     0.3214647    5.3058216    0.0627634 
H    -4.3085633   -3.0701998   -1.8397358 
H    -4.9809372   -1.4871699    2.1360671 
H    -1.5667220    4.9857961   -2.0284391 
H    -3.0840734    4.2469152    1.9613169 
H     4.9996492    1.5798308    1.8125430 
H     4.1430096    3.0172001   -2.1831904 
H     1.6985721   -4.8599714    2.1065240 
H     2.8114954   -4.3462091   -2.0481767 
H     2.8077309   -7.1016317    2.1306419 
H     3.9271453   -7.9740475    0.0602077 
H     3.9251951   -6.5856026   -2.0310010 
H    -6.5500741   -4.1768995   -1.7825958 
H    -8.0189914   -3.9412776    0.2393284 
H    -7.2247105   -2.5898205    2.1999009 
H    -2.6779642    7.2257252   -2.0403777 
H    -4.0004117    7.9854299   -0.0465616 
H    -4.1991499    6.4848542    1.9560353 
H     7.2354956    2.6970310    1.7393171 
H     7.9343232    3.9822119   -0.3006042 
H     6.3767907    4.1386776   -2.2630171 
